test/data/pti/case24.raw
 0,    100.00, 33, 0, 0, 60.00 
tests a seminal dataset

    1,'1           ', 138.0000,2,   1,   1,   1,1.03116000,  -7.749310, 1.05000, 0.95000, 1.10000, 0.90000
    2,'2           ', 138.0000,2,   1,   1,   1,1.02794003,  -7.723410, 1.05000, 0.95000, 1.10000, 0.90000
    3,'3           ', 138.0000,1,   1,   1,   1,1.01394999,  -9.958750, 1.05000, 0.95000, 1.10000, 0.90000
    4,'4           ', 138.0000,1,   1,   1,   1,1.00902998, -10.811310, 1.05000, 0.95000, 1.10000, 0.90000
    5,'5           ', 138.0000,1,   1,   1,   1,1.02710998, -10.742730, 1.05000, 0.95000, 1.10000, 0.90000
    6,'6           ', 138.0000,1,   2,   1,   1,1.02760005, -13.285970, 1.05000, 0.95000, 1.10000, 0.90000
    7,'7           ', 138.0000,2,   2,   1,   1,1.02955997,  -3.591640, 1.05000, 0.95000, 1.10000, 0.90000
    8,'8           ', 138.0000,1,   2,   1,   1,1.00426996,  -9.500270, 1.05000, 0.95000, 1.10000, 0.90000
    9,'9           ', 138.0000,1,   1,   1,   1,1.02698004,  -9.271950, 1.05000, 0.95000, 1.10000, 0.90000
   10,'10          ', 138.0000,1,   2,   1,   1,1.04999995, -10.622350, 1.05000, 0.95000, 1.10000, 0.90000
   11,'11          ', 230.0000,1,   3,   1,   1,1.03272998,  -4.648180, 1.05000, 0.95000, 1.10000, 0.90000
   12,'12          ', 230.0000,1,   3,   1,   1,1.02695000,  -3.522320, 1.05000, 0.95000, 1.10000, 0.90000
   13,'13          ', 230.0000,3,   3,   1,   1,1.04999995,   0.000000, 1.05000, 0.95000, 1.10000, 0.90000
   14,'14          ', 230.0000,2,   3,   1,   1,1.04999995,  -3.716890, 1.05000, 0.95000, 1.10000, 0.90000
   15,'15          ', 230.0000,2,   4,   1,   1,1.04479003,   1.175250, 1.05000, 0.95000, 1.10000, 0.90000
   16,'16          ', 230.0000,2,   4,   1,   1,1.04951000,   1.276260, 1.05000, 0.95000, 1.10000, 0.90000
   17,'17          ', 230.0000,1,   4,   1,   1,1.04983997,   4.770960, 1.05000, 0.95000, 1.10000, 0.90000
   18,'18          ', 230.0000,2,   4,   1,   1,1.04999995,   5.759370, 1.05000, 0.95000, 1.10000, 0.90000
   19,'19          ', 230.0000,1,   3,   1,   1,1.04184997,   0.703190, 1.05000, 0.95000, 1.10000, 0.90000
   20,'20          ', 230.0000,1,   3,   1,   1,1.04489005,   2.061900, 1.05000, 0.95000, 1.10000, 0.90000
   21,'21          ', 230.0000,2,   4,   1,   1,1.04999995,   6.192530, 1.05000, 0.95000, 1.10000, 0.90000
   22,'22          ', 230.0000,2,   4,   1,   1,1.04999995,  11.871000, 1.05000, 0.95000, 1.10000, 0.90000
   23,'23          ', 230.0000,2,   3,   1,   1,1.04999995,   3.510510, 1.05000, 0.95000, 1.10000, 0.90000
   24,'24          ', 230.0000,1,   4,   1,   1,1.01424003,  -2.858720, 1.05000, 0.95000, 1.10000, 0.90000
0 / END OF BUS DATA, BEGIN LOAD DATA
    1,'1 ',1,   1,   1,   108.000,    22.000,     0.000,     0.000,     0.000,     0.000,   1,1
    2,'1 ',1,   1,   1,    97.000,    20.000,     0.000,     0.000,     0.000,     0.000,   1,1
    3,'1 ',1,   1,   1,   180.000,    37.000,     0.000,     0.000,     0.000,     0.000,   1,1
    4,'1 ',1,   1,   1,    74.000,    15.000,     0.000,     0.000,     0.000,     0.000,   1,1
    5,'1 ',1,   1,   1,    71.000,    14.000,     0.000,     0.000,     0.000,     0.000,   1,1
    6,'1 ',1,   2,   1,   136.000,    28.000,     0.000,     0.000,     0.000,     0.000,   1,1
    7,'1 ',1,   2,   1,   125.000,    25.000,     0.000,     0.000,     0.000,     0.000,   1,1
    8,'1 ',1,   2,   1,   171.000,    35.000,     0.000,     0.000,     0.000,     0.000,   1,1
    9,'1 ',1,   1,   1,   175.000,    36.000,     0.000,     0.000,     0.000,     0.000,   1,1
   10,'1 ',1,   2,   1,   195.000,    40.000,     0.000,     0.000,     0.000,     0.000,   1,1
   13,'1 ',1,   3,   1,   265.000,    54.000,     0.000,     0.000,     0.000,     0.000,   1,1
   14,'1 ',1,   3,   1,   194.000,    39.000,     0.000,     0.000,     0.000,     0.000,   1,1
   15,'1 ',1,   4,   1,   317.000,    64.000,     0.000,     0.000,     0.000,     0.000,   1,1
   16,'1 ',1,   4,   1,   100.000,    20.000,     0.000,     0.000,     0.000,     0.000,   1,1
   18,'1 ',1,   4,   1,   333.000,    68.000,     0.000,     0.000,     0.000,     0.000,   1,1
   19,'1 ',1,   3,   1,   181.000,    37.000,     0.000,     0.000,     0.000,     0.000,   1,1
   20,'1 ',1,   3,   1,   128.000,    26.000,     0.000,     0.000,     0.000,     0.000,   1,1
0 / END OF LOAD DATA, BEGIN FIXED SHUNT DATA
0 / END OF FIXED SHUNT DATA, BEGIN GENERATOR DATA
    1,'1 ',    20.000,     4.934,    10.000,     0.000,1.03116,    0,   100.000,   0.00000,   1.00000,   0.00000,   0.00000,1.00000,1,  100.0,    20.000,    16.000,   1,1.0000,   0,1.0000,   0,1.0000,   0,1.0000,0, 1.0000
    1,'2 ',    20.000,     4.934,    10.000,     0.000,1.03116,    0,   100.000,   0.00000,   1.00000,   0.00000,   0.00000,1.00000,1,  100.0,    20.000,    16.000,   1,1.0000,   0,1.0000,   0,1.0000,   0,1.0000,0, 1.0000
    1,'3 ',    76.000,     0.571,    30.000,   -25.000,1.03116,    0,   100.000,   0.00000,   1.00000,   0.00000,   0.00000,1.00000,1,  100.0,    76.000,    15.200,   1,1.0000,   0,1.0000,   0,1.0000,   0,1.0000,0, 1.0000
    1,'4 ',    76.000,     0.571,    30.000,   -25.000,1.03116,    0,   100.000,   0.00000,   1.00000,   0.00000,   0.00000,1.00000,1,  100.0,    76.000,    15.200,   1,1.0000,   0,1.0000,   0,1.0000,   0,1.0000,0, 1.0000
    2,'1 ',    20.000,     2.222,    10.000,     0.000,1.02794,    0,   100.000,   0.00000,   1.00000,   0.00000,   0.00000,1.00000,1,  100.0,    20.000,    16.000,   1,1.0000,   0,1.0000,   0,1.0000,   0,1.0000,0, 1.0000
    2,'2 ',    20.000,     2.222,    10.000,     0.000,1.02794,    0,   100.000,   0.00000,   1.00000,   0.00000,   0.00000,1.00000,1,  100.0,    20.000,    16.000,   1,1.0000,   0,1.0000,   0,1.0000,   0,1.0000,0, 1.0000
    2,'3 ',    76.000,   -21.307,    30.000,   -25.000,1.02794,    0,   100.000,   0.00000,   1.00000,   0.00000,   0.00000,1.00000,1,  100.0,    76.000,    15.200,   1,1.0000,   0,1.0000,   0,1.0000,   0,1.0000,0, 1.0000
    2,'4 ',    76.000,   -21.307,    30.000,   -25.000,1.02794,    0,   100.000,   0.00000,   1.00000,   0.00000,   0.00000,1.00000,1,  100.0,    76.000,    15.200,   1,1.0000,   0,1.0000,   0,1.0000,   0,1.0000,0, 1.0000
    7,'1 ',    99.974,    10.062,    60.000,     0.000,1.02956,    0,   100.000,   0.00000,   1.00000,   0.00000,   0.00000,1.00000,1,  100.0,   100.000,    25.000,   1,1.0000,   0,1.0000,   0,1.0000,   0,1.0000,0, 1.0000
    7,'2 ',    99.974,    10.062,    60.000,     0.000,1.02956,    0,   100.000,   0.00000,   1.00000,   0.00000,   0.00000,1.00000,1,  100.0,   100.000,    25.000,   1,1.0000,   0,1.0000,   0,1.0000,   0,1.0000,0, 1.0000
    7,'3 ',    99.974,    10.062,    60.000,     0.000,1.02956,    0,   100.000,   0.00000,   1.00000,   0.00000,   0.00000,1.00000,1,  100.0,   100.000,    25.000,   1,1.0000,   0,1.0000,   0,1.0000,   0,1.0000,0, 1.0000
   13,'1 ',   173.258,    34.475,    80.000,     0.000,1.05000,    0,   100.000,   0.00000,   1.00000,   0.00000,   0.00000,1.00000,1,  100.0,   197.000,    69.000,   1,1.0000,   0,1.0000,   0,1.0000,   0,1.0000,0, 1.0000
   13,'2 ',   173.258,    34.475,    80.000,     0.000,1.05000,    0,   100.000,   0.00000,   1.00000,   0.00000,   0.00000,1.00000,1,  100.0,   197.000,    69.000,   1,1.0000,   0,1.0000,   0,1.0000,   0,1.0000,0, 1.0000
   13,'3 ',   173.258,    34.475,    80.000,     0.000,1.05000,    0,   100.000,   0.00000,   1.00000,   0.00000,   0.00000,1.00000,1,  100.0,   197.000,    69.000,   1,1.0000,   0,1.0000,   0,1.0000,   0,1.0000,0, 1.0000
   14,'1 ',     0.000,   110.354,   200.000,   -50.000,1.05000,    0,   100.000,   0.00000,   1.00000,   0.00000,   0.00000,1.00000,1,  100.0,     0.000,     0.000,   1,1.0000,   0,1.0000,   0,1.0000,   0,1.0000,0, 1.0000
   15,'1 ',     2.400,     6.000,     6.000,     0.000,1.04479,    0,   100.000,   0.00000,   1.00000,   0.00000,   0.00000,1.00000,1,  100.0,    12.000,     2.400,   1,1.0000,   0,1.0000,   0,1.0000,   0,1.0000,0, 1.0000
   15,'2 ',     2.400,     6.000,     6.000,     0.000,1.04479,    0,   100.000,   0.00000,   1.00000,   0.00000,   0.00000,1.00000,1,  100.0,    12.000,     2.400,   1,1.0000,   0,1.0000,   0,1.0000,   0,1.0000,0, 1.0000
   15,'3 ',     2.400,     6.000,     6.000,     0.000,1.04479,    0,   100.000,   0.00000,   1.00000,   0.00000,   0.00000,1.00000,1,  100.0,    12.000,     2.400,   1,1.0000,   0,1.0000,   0,1.0000,   0,1.0000,0, 1.0000
   15,'4 ',     2.400,     6.000,     6.000,     0.000,1.04479,    0,   100.000,   0.00000,   1.00000,   0.00000,   0.00000,1.00000,1,  100.0,    12.000,     2.400,   1,1.0000,   0,1.0000,   0,1.0000,   0,1.0000,0, 1.0000
   15,'5 ',     2.400,     6.000,     6.000,     0.000,1.04479,    0,   100.000,   0.00000,   1.00000,   0.00000,   0.00000,1.00000,1,  100.0,    12.000,     2.400,   1,1.0000,   0,1.0000,   0,1.0000,   0,1.0000,0, 1.0000
   15,'6 ',    54.300,    80.000,    80.000,   -50.000,1.04479,    0,   100.000,   0.00000,   1.00000,   0.00000,   0.00000,1.00000,1,  100.0,   155.000,    54.300,   1,1.0000,   0,1.0000,   0,1.0000,   0,1.0000,0, 1.0000
   16,'1 ',   155.000,    80.000,    80.000,   -50.000,1.04951,    0,   100.000,   0.00000,   1.00000,   0.00000,   0.00000,1.00000,1,  100.0,   155.000,    54.300,   1,1.0000,   0,1.0000,   0,1.0000,   0,1.0000,0, 1.0000
   18,'1 ',   400.000,    54.665,   200.000,   -50.000,1.05000,    0,   100.000,   0.00000,   1.00000,   0.00000,   0.00000,1.00000,1,  100.0,   400.000,   100.000,   1,1.0000,   0,1.0000,   0,1.0000,   0,1.0000,0, 1.0000
   21,'1 ',   296.310,   -15.579,   200.000,   -50.000,1.05000,    0,   100.000,   0.00000,   1.00000,   0.00000,   0.00000,1.00000,1,  100.0,   400.000,   100.000,   1,1.0000,   0,1.0000,   0,1.0000,   0,1.0000,0, 1.0000
   22,'1 ',    47.938,    -6.795,    16.000,   -10.000,1.05000,    0,   100.000,   0.00000,   1.00000,   0.00000,   0.00000,1.00000,1,  100.0,    50.000,    10.000,   1,1.0000,   0,1.0000,   0,1.0000,   0,1.0000,0, 1.0000
   22,'2 ',    47.938,    -6.795,    16.000,   -10.000,1.05000,    0,   100.000,   0.00000,   1.00000,   0.00000,   0.00000,1.00000,1,  100.0,    50.000,    10.000,   1,1.0000,   0,1.0000,   0,1.0000,   0,1.0000,0, 1.0000
   22,'3 ',    47.938,    -6.795,    16.000,   -10.000,1.05000,    0,   100.000,   0.00000,   1.00000,   0.00000,   0.00000,1.00000,1,  100.0,    50.000,    10.000,   1,1.0000,   0,1.0000,   0,1.0000,   0,1.0000,0, 1.0000
   22,'4 ',    47.938,    -6.795,    16.000,   -10.000,1.05000,    0,   100.000,   0.00000,   1.00000,   0.00000,   0.00000,1.00000,1,  100.0,    50.000,    10.000,   1,1.0000,   0,1.0000,   0,1.0000,   0,1.0000,0, 1.0000
   22,'5 ',    47.938,    -6.795,    16.000,   -10.000,1.05000,    0,   100.000,   0.00000,   1.00000,   0.00000,   0.00000,1.00000,1,  100.0,    50.000,    10.000,   1,1.0000,   0,1.0000,   0,1.0000,   0,1.0000,0, 1.0000
   22,'6 ',    47.938,    -6.795,    16.000,   -10.000,1.05000,    0,   100.000,   0.00000,   1.00000,   0.00000,   0.00000,1.00000,1,  100.0,    50.000,    10.000,   1,1.0000,   0,1.0000,   0,1.0000,   0,1.0000,0, 1.0000
   23,'1 ',   113.399,    -9.984,    80.000,   -50.000,1.05000,    0,   100.000,   0.00000,   1.00000,   0.00000,   0.00000,1.00000,1,  100.0,   155.000,    54.300,   1,1.0000,   0,1.0000,   0,1.0000,   0,1.0000,0, 1.0000
   23,'2 ',   113.399,    -9.984,    80.000,   -50.000,1.05000,    0,   100.000,   0.00000,   1.00000,   0.00000,   0.00000,1.00000,1,  100.0,   155.000,    54.300,   1,1.0000,   0,1.0000,   0,1.0000,   0,1.0000,0, 1.0000
   23,'3 ',   248.289,    21.208,   150.000,   -25.000,1.05000,    0,   100.000,   0.00000,   1.00000,   0.00000,   0.00000,1.00000,1,  100.0,   350.000,   140.000,   1,1.0000,   0,1.0000,   0,1.0000,   0,1.0000,0, 1.0000
0 / END OF GENERATOR DATA, BEGIN BRANCH DATA
     1,     2,'1 ',2.60000E-3,1.39000E-2,4.61100E-1, 175.00, 193.00, 200.00,  0.00000,  0.00000,  0.00000,  0.00000,1,1,   0.0,   1,1.0000,   0,1.0000,   0,1.0000,   0,1.0000
     1,     3,'1 ',5.46000E-2,2.11200E-1,5.72000E-2, 175.00, 208.00, 220.00,  0.00000,  0.00000,  0.00000,  0.00000,1,1,   0.0,   1,1.0000,   0,1.0000,   0,1.0000,   0,1.0000
     1,     5,'1 ',2.18000E-2,8.45000E-2,2.29000E-2, 175.00, 208.00, 220.00,  0.00000,  0.00000,  0.00000,  0.00000,1,1,   0.0,   1,1.0000,   0,1.0000,   0,1.0000,   0,1.0000
     2,     4,'1 ',3.28000E-2,1.26700E-1,3.43000E-2, 175.00, 208.00, 220.00,  0.00000,  0.00000,  0.00000,  0.00000,1,1,   0.0,   1,1.0000,   0,1.0000,   0,1.0000,   0,1.0000
     2,     6,'1 ',4.97000E-2,1.92000E-1,5.20000E-2, 175.00, 208.00, 220.00,  0.00000,  0.00000,  0.00000,  0.00000,1,1,   0.0,   1,1.0000,   0,1.0000,   0,1.0000,   0,1.0000
     3,     9,'1 ',3.08000E-2,1.19000E-1,3.22000E-2, 175.00, 208.00, 220.00,  0.00000,  0.00000,  0.00000,  0.00000,1,1,   0.0,   1,1.0000,   0,1.0000,   0,1.0000,   0,1.0000
     4,     9,'1 ',2.68000E-2,1.03700E-1,2.81000E-2, 175.00, 208.00, 220.00,  0.00000,  0.00000,  0.00000,  0.00000,1,1,   0.0,   1,1.0000,   0,1.0000,   0,1.0000,   0,1.0000
     5,    10,'1 ',2.28000E-2,8.83000E-2,2.39000E-2, 175.00, 208.00, 220.00,  0.00000,  0.00000,  0.00000,  0.00000,1,1,   0.0,   1,1.0000,   0,1.0000,   0,1.0000,   0,1.0000
     6,    10,'1 ',1.39000E-2,6.05000E-2,2.45900E0, 175.00, 193.00, 200.00,  0.00000,  0.00000,  0.00000,  0.00000,1,1,   0.0,   1,1.0000,   0,1.0000,   0,1.0000,   0,1.0000
     7,     8,'1 ',1.59000E-2,6.14000E-2,1.66000E-2, 175.00, 208.00, 220.00,  0.00000,  0.00000,  0.00000,  0.00000,1,1,   0.0,   1,1.0000,   0,1.0000,   0,1.0000,   0,1.0000
     8,     9,'1 ',4.27000E-2,1.65100E-1,4.47000E-2, 175.00, 208.00, 220.00,  0.00000,  0.00000,  0.00000,  0.00000,1,1,   0.0,   1,1.0000,   0,1.0000,   0,1.0000,   0,1.0000
     8,    10,'1 ',4.27000E-2,1.65100E-1,4.47000E-2, 175.00, 208.00, 220.00,  0.00000,  0.00000,  0.00000,  0.00000,1,1,   0.0,   1,1.0000,   0,1.0000,   0,1.0000,   0,1.0000
    11,    13,'1 ',6.10000E-3,4.76000E-2,9.99000E-2, 500.00, 600.00, 625.00,  0.00000,  0.00000,  0.00000,  0.00000,1,1,   0.0,   1,1.0000,   0,1.0000,   0,1.0000,   0,1.0000
    11,    14,'1 ',5.40000E-3,4.18000E-2,8.79000E-2, 500.00, 600.00, 625.00,  0.00000,  0.00000,  0.00000,  0.00000,1,1,   0.0,   1,1.0000,   0,1.0000,   0,1.0000,   0,1.0000
    12,    13,'1 ',6.10000E-3,4.76000E-2,9.99000E-2, 500.00, 600.00, 625.00,  0.00000,  0.00000,  0.00000,  0.00000,1,1,   0.0,   1,1.0000,   0,1.0000,   0,1.0000,   0,1.0000
    12,    23,'1 ',1.24000E-2,9.66000E-2,2.03000E-1, 500.00, 600.00, 625.00,  0.00000,  0.00000,  0.00000,  0.00000,1,1,   0.0,   1,1.0000,   0,1.0000,   0,1.0000,   0,1.0000
    13,    23,'1 ',1.11000E-2,8.65000E-2,1.81800E-1, 500.00, 600.00, 625.00,  0.00000,  0.00000,  0.00000,  0.00000,1,1,   0.0,   1,1.0000,   0,1.0000,   0,1.0000,   0,1.0000
    14,    16,'1 ',5.00000E-3,3.89000E-2,8.18000E-2, 500.00, 600.00, 625.00,  0.00000,  0.00000,  0.00000,  0.00000,1,1,   0.0,   1,1.0000,   0,1.0000,   0,1.0000,   0,1.0000
    15,    16,'1 ',2.20000E-3,1.73000E-2,3.64000E-2, 500.00, 600.00, 625.00,  0.00000,  0.00000,  0.00000,  0.00000,1,1,   0.0,   1,1.0000,   0,1.0000,   0,1.0000,   0,1.0000
    15,    21,'1 ',6.30000E-3,4.90000E-2,1.03000E-1, 500.00, 600.00, 625.00,  0.00000,  0.00000,  0.00000,  0.00000,1,1,   0.0,   1,1.0000,   0,1.0000,   0,1.0000,   0,1.0000
    15,    21,'2 ',6.30000E-3,4.90000E-2,1.03000E-1, 500.00, 600.00, 625.00,  0.00000,  0.00000,  0.00000,  0.00000,1,1,   0.0,   1,1.0000,   0,1.0000,   0,1.0000,   0,1.0000
    15,    24,'1 ',6.70000E-3,5.19000E-2,1.09100E-1, 500.00, 600.00, 625.00,  0.00000,  0.00000,  0.00000,  0.00000,1,1,   0.0,   1,1.0000,   0,1.0000,   0,1.0000,   0,1.0000
    16,    17,'1 ',3.30000E-3,2.59000E-2,5.45000E-2, 500.00, 600.00, 625.00,  0.00000,  0.00000,  0.00000,  0.00000,1,1,   0.0,   1,1.0000,   0,1.0000,   0,1.0000,   0,1.0000
    16,    19,'1 ',3.00000E-3,2.31000E-2,4.85000E-2, 500.00, 600.00, 625.00,  0.00000,  0.00000,  0.00000,  0.00000,1,1,   0.0,   1,1.0000,   0,1.0000,   0,1.0000,   0,1.0000
    17,    18,'1 ',1.80000E-3,1.44000E-2,3.03000E-2, 500.00, 600.00, 625.00,  0.00000,  0.00000,  0.00000,  0.00000,1,1,   0.0,   1,1.0000,   0,1.0000,   0,1.0000,   0,1.0000
    17,    22,'1 ',1.35000E-2,1.05300E-1,2.21200E-1, 500.00, 600.00, 625.00,  0.00000,  0.00000,  0.00000,  0.00000,1,1,   0.0,   1,1.0000,   0,1.0000,   0,1.0000,   0,1.0000
    18,    21,'1 ',3.30000E-3,2.59000E-2,5.45000E-2, 500.00, 600.00, 625.00,  0.00000,  0.00000,  0.00000,  0.00000,1,1,   0.0,   1,1.0000,   0,1.0000,   0,1.0000,   0,1.0000
    18,    21,'2 ',3.30000E-3,2.59000E-2,5.45000E-2, 500.00, 600.00, 625.00,  0.00000,  0.00000,  0.00000,  0.00000,1,1,   0.0,   1,1.0000,   0,1.0000,   0,1.0000,   0,1.0000
    19,    20,'1 ',5.10000E-3,3.96000E-2,8.33000E-2, 500.00, 600.00, 625.00,  0.00000,  0.00000,  0.00000,  0.00000,1,1,   0.0,   1,1.0000,   0,1.0000,   0,1.0000,   0,1.0000
    19,    20,'2 ',5.10000E-3,3.96000E-2,8.33000E-2, 500.00, 600.00, 625.00,  0.00000,  0.00000,  0.00000,  0.00000,1,1,   0.0,   1,1.0000,   0,1.0000,   0,1.0000,   0,1.0000
    23,    20,'1 ',2.80000E-3,2.16000E-2,4.55000E-2, 500.00, 600.00, 625.00,  0.00000,  0.00000,  0.00000,  0.00000,1,1,   0.0,   1,1.0000,   0,1.0000,   0,1.0000,   0,1.0000
    20,    23,'2 ',2.80000E-3,2.16000E-2,4.55000E-2, 500.00, 600.00, 625.00,  0.00000,  0.00000,  0.00000,  0.00000,1,1,   0.0,   1,1.0000,   0,1.0000,   0,1.0000,   0,1.0000
    21,    22,'1 ',8.70000E-3,6.78000E-2,1.42400E-1, 500.00, 600.00, 625.00,  0.00000,  0.00000,  0.00000,  0.00000,1,1,   0.0,   1,1.0000,   0,1.0000,   0,1.0000,   0,1.0000
0 / END OF BRANCH DATA, BEGIN TRANSFORMER DATA
     3,    24,    0,'1 ',1,1,1,0.00000E0,0.00000E0,2,'            ',1,   1,1.0000,   0,1.0000,   0,1.0000,   0,1.0000,'            '
2.30000E-3,8.39000E-2, 100.00
1.030000,138.000,   0.000, 400.00, 510.00, 600.00,-1,     0,1.500000,0.510000,1.500000,0.510000,159, 0, 0.00000, 0.00000,  0.000
1.000000,230.000
     9,    11,    0,'1 ',1,1,1,0.00000E0,0.00000E0,2,'            ',1,   1,1.0000,   0,1.0000,   0,1.0000,   0,1.0000,'            '
2.30000E-3,8.39000E-2, 100.00
1.030000,138.000,   0.000, 400.00, 510.00, 600.00,-1,     0,1.500000,0.510000,1.500000,0.510000,159, 0, 0.00000, 0.00000,  0.000
1.000000,230.000
     9,    12,    0,'1 ',1,1,1,0.00000E0,0.00000E0,2,'            ',1,   1,1.0000,   0,1.0000,   0,1.0000,   0,1.0000,'            '
2.30000E-3,8.39000E-2, 100.00
1.030000,138.000,   0.000, 400.00, 510.00, 600.00,-1,     0,1.500000,0.510000,1.500000,0.510000,159, 0, 0.00000, 0.00000,  0.000
1.000000,230.000
    10,    11,    0,'1 ',1,1,1,0.00000E0,0.00000E0,2,'            ',1,   1,1.0000,   0,1.0000,   0,1.0000,   0,1.0000,'            '
2.30000E-3,8.39000E-2, 100.00
1.020000,138.000,   0.000, 400.00, 510.00, 600.00,-1,     0,1.500000,0.510000,1.500000,0.510000,159, 0, 0.00000, 0.00000,  0.000
1.000000,230.000
    10,    12,    0,'1 ',1,1,1,0.00000E0,0.00000E0,2,'            ',1,   1,1.0000,   0,1.0000,   0,1.0000,   0,1.0000,'            '
2.30000E-3,8.39000E-2, 100.00
1.020000,138.000,   0.000, 400.00, 510.00, 600.00,-1,     0,1.500000,0.510000,1.500000,0.510000,159, 0, 0.00000, 0.00000,  0.000
1.000000,230.000
0 / END OF TRANSFORMER DATA, BEGIN AREA DATA
   1,    0,     0.000,     1.000,'1           '
   2,    0,     0.000,     1.000,'2           '
   3,    0,     0.000,     1.000,'3           '
   4,    0,     0.000,     1.000,'4           '
0 / END OF AREA DATA, BEGIN TWO-TERMINAL DC DATA
0 / END OF TWO-TERMINAL DC DATA, BEGIN VOLTAGE SOURCE CONVERTER DATA
0 / END OF VOLTAGE SOURCE CONVERTER DATA, BEGIN IMPEDANCE CORRECTION DATA
0 / END OF IMPEDANCE CORRECTION DATA, BEGIN MULTI-TERMINAL DC DATA
0 / END OF MULTI-TERMINAL DC DATA, BEGIN MULTI-SECTION LINE DATA
0 / END OF MULTI-SECTION LINE DATA, BEGIN ZONE DATA
   1,'1       '
0 / END OF ZONE DATA, BEGIN INTER-AREA TRANSFER DATA
0 / END OF INTER-AREA TRANSFER DATA, BEGIN OWNER DATA
    1,'1'
0 / END OF OWNER DATA, BEGIN FACTS CONTROL DEVICE DATA
0 / END OF FACTS CONTROL DEVICE DATA, BEGIN SWITCHED SHUNT DATA
    6,2,0,1,1.05000,0.95000,    0,100.0,'        ', -100.00, 1,-100.00
0 /END OF SWITCHED SHUNT DATA, BEGIN GNE DEVICE DATA
0 /END OF GNE DEVICE DATA
Q
